file 2894 1776677000                                            
version 3
run General-0-20260420-17:20:19-29948
attr configname General
attr datetime 20260420-17:20:19
attr datetimef 20260420-172019
attr experiment General
attr inifile omnetpp.ini
attr iterationvars ""
attr iterationvarsd ""
attr iterationvarsf ""
attr measurement ""
attr network hnocs.topologies.Mesh
attr processid 29948
attr repetition 0
attr replication #0
attr resultdir results
attr runnumber 0
attr seedset 0
config record-eventlog false
config **.vector-recording false
config network hnocs.topologies.Mesh
config **.routerType "\"hnocs.routers.hier.Router\""
config **.coreType "\"hnocs.cores.NI\""
config **.sourceType "\"hnocs.cores.sources.PktFifoSrc\""
config **.sinkType "\"hnocs.cores.sinks.InfiniteBWMultiVCSink\""
config **.portType "\"hnocs.routers.hier.Port\""
config **.inPortType "\"hnocs.routers.hier.inPort.InPortSync\""
config **.OPCalcType "\"hnocs.routers.hier.opCalc.static.XYOPCalc\""
config **.VCCalcType "\"hnocs.routers.hier.vcCalc.free.FLUVCCalc\""
config **.schedType "\"hnocs.routers.hier.sched.wormhole.SchedSync\""
config sim-time-limit 100us
config **.numVCs 2
config **.flitSize 4B
config **.rows 2
config **.columns 2
config **.statStartTime 10us
config **.source.pktVC 0
config **.source.msgLen 2
config **.source.pktLen 4
config **.source.isSynchronous false
config **.source.isTrace false
config **.source.fileName "\"\""
config **.source.flitArrivalDelay 10ns
config **.source.maxQueuedPkts 16
config **.source.dstId "(parent.id + 1) % 4"
config **.inPort.collectPerHopWait false
config **.inPort.flitsPerVC 4
config **.sched.arbitration_type 0
config **.sched.freeRunningClk false
config **.heterogeneous false
config **.givenTclk false
config **.tClk 2ns
config output-scalar-file results/General-0.sca

